[General]
network = Network
sim-time-limit = 300s
Network.numTics = 20
Network.tics[*].isOptimized = true